PEG_5mer
  polymer_from_oligomer

 16 15  0  0  0  0            999 V2000
    0.0000    0.0000    0.0000 O   0  0  0  0  0  0  0  0  0  0  0  0
    1.4500    0.0000    0.0000 C   0  0  0  0  0  0  0  0  0  0  0  0
    2.9000    0.0000    0.0000 C   0  0  0  0  0  0  0  0  0  0  0  0
    4.3500    0.0000    0.0000 O   0  0  0  0  0  0  0  0  0  0  0  0
    5.8000    0.0000    0.0000 C   0  0  0  0  0  0  0  0  0  0  0  0
    7.2500    0.0000    0.0000 C   0  0  0  0  0  0  0  0  0  0  0  0
    8.7000    0.0000    0.0000 O   0  0  0  0  0  0  0  0  0  0  0  0
   10.1500    0.0000    0.0000 C   0  0  0  0  0  0  0  0  0  0  0  0
   11.6000    0.0000    0.0000 C   0  0  0  0  0  0  0  0  0  0  0  0
   13.0500    0.0000    0.0000 O   0  0  0  0  0  0  0  0  0  0  0  0
   14.5000    0.0000    0.0000 C   0  0  0  0  0  0  0  0  0  0  0  0
   15.9500    0.0000    0.0000 C   0  0  0  0  0  0  0  0  0  0  0  0
   17.4000    0.0000    0.0000 O   0  0  0  0  0  0  0  0  0  0  0  0
   18.8500    0.0000    0.0000 C   0  0  0  0  0  0  0  0  0  0  0  0
   20.3000    0.0000    0.0000 C   0  0  0  0  0  0  0  0  0  0  0  0
   21.7500    0.0000    0.0000 O   0  0  0  0  0  0  0  0  0  0  0  0
  1  2  1  0  0  0  0
  2  3  1  0  0  0  0
  3  4  1  0  0  0  0
  4  5  1  0  0  0  0
  5  6  1  0  0  0  0
  6  7  1  0  0  0  0
  7  8  1  0  0  0  0
  8  9  1  0  0  0  0
  9 10  1  0  0  0  0
 10 11  1  0  0  0  0
 11 12  1  0  0  0  0
 12 13  1  0  0  0  0
 13 14  1  0  0  0  0
 14 15  1  0  0  0  0
 15 16  1  0  0  0  0
M  END
$$$$
