PEG_repeat_monomer
  polymer_gui

  3  2  0  0  0  0            999 V2000
    0.0000    0.0000    0.0000 C   0  0  0  0  0  0  0  0  0  0  0  0
    1.4500    0.0000    0.0000 C   0  0  0  0  0  0  0  0  0  0  0  0
    2.9000    0.0000    0.0000 O   0  0  0  0  0  0  0  0  0  0  0  0
  1  2  1  0  0  0  0
  2  3  1  0  0  0  0
M  END
$$$$
